LAMMPS (29 Aug 2024)
#-------------------------------------------------------------------------------
# LAMMPS Stage 1:
# Created using Scymol 2023.
#-------------------------------------------------------------------------------
echo                both
#-------------------------------------------------------------------------------
# Substage 1.1: Initialization
# Initialize LAMMPS run.
#-------------------------------------------------------------------------------
units               real
boundary            p p p
atom_style          full
pair_style          lj/cut 12.0
pair_modify         mix arithmetic
bond_style          harmonic
angle_style         harmonic
dihedral_style      fourier
improper_style      cvff
special_bonds       amber
read_data           structure.data
Reading data file ...
  orthogonal box = (0 0 0) to (21.989593 21.989593 2198.9593)
  reading atoms ...
  900 atoms
  reading velocities ...
  900 velocities
  scanning bonds ...
  scanning angles ...
  scanning dihedrals ...
  orthogonal box = (0 0 0) to (21.989593 21.989593 2198.9593)
  reading bonds ...
  950 bonds
  reading angles ...
  1500 angles
  reading dihedrals ...
  2200 dihedrals
Finding 1-2 1-3 1-4 neighbors ...
     3 = max # of 1-2 neighbors
     6 = max # of 1-3 neighbors
    14 = max # of 1-4 neighbors
    15 = max # of special neighbors

#-------------------------------------------------------------------------------
# Declaring variables:
#-------------------------------------------------------------------------------
variable            R equal 0.00198722
variable            sysvol equal vol
variable            sysmass equal mass(all)/6.0221367e+023
variable            sysdensity equal v_sysmass/v_sysvol/1.0e-24
variable            coulomb equal ecoul+elong
variable            etotal equal etotal
variable            pe equal pe
variable            ke equal ke
variable            evdwl equal evdwl
variable            epair equal epair
variable            ebond equal ebond
variable            eangle equal eangle
variable            edihed equal edihed
variable            eimp equal eimp
variable            lx equal lx
variable            ly equal ly
variable            lz equal lz
variable            xhi equal xhi
variable            yhi equal yhi
variable            zhi equal zhi
variable            xlo equal xlo
variable            ylo equal ylo
variable            zlo equal zlo
variable            Nthermo equal 0
variable            cella equal lx
variable            cellb equal sqrt(ly*ly+xy*xy)
variable            cellc equal sqrt(lz*lz+xz*xz+yz*yz)
variable            cellalpha equal acos((xy*xz+ly*yz)/(v_cellb*v_cellc))
variable            cellbeta equal acos(xz/v_cellc)
variable            cellgamma equal acos(xy/v_cellb)
variable            p equal press
variable            pxx equal pxx
variable            pyy equal pyy
variable            pzz equal pzz
variable            pyz equal pyz
variable            pxz equal pxz
variable            pxy equal pxy
variable            sxx equal -pxx
variable            syy equal -pyy
variable            szz equal -pzz
variable            syz equal -pyz
variable            sxz equal -pxz
variable            sxy equal -pxy
variable            fmax equal fmax
variable            fnorm equal fnorm
variable            time equal step*dt+0.000001
thermo_style        custom step v_time press vol v_sysdensity temp ebond eangle edihed eimp evdwl ecoul etail elong pe ke
thermo_modify       flush yes
reset_timestep      0
#-------------------------------------------------------------------------------
# Substage 1.2: Minimization
# Initialize LAMMPS run.
#-------------------------------------------------------------------------------
min_style           cg
min_modify          dmax 0.05
thermo_style        custom step fmax fnorm press vol v_sysdensity v_sxx v_syy v_szz v_syz v_sxz v_sxy pe v_cella v_cellb v_cellc v_cellalpha v_cellbeta v_cellgamma
dump                minrun all custom 1000 1.2_minimization.lammpstrj id mol type q xs ys zs
thermo              100
minimize            0.0 0.0 1000 10000

CITE-CITE-CITE-CITE-CITE-CITE-CITE-CITE-CITE-CITE-CITE-CITE-CITE

Your simulation uses code contributions which should be cited:

- Type Label Framework: https://doi.org/10.1021/acs.jpcb.3c08419

@Article{Gissinger24,
 author = {Jacob R. Gissinger, Ilia Nikiforov, Yaser Afshar, Brendon Waters, Moon-ki Choi, Daniel S. Karls, Alexander Stukowski, Wonpil Im, Hendrik Heinz, Axel Kohlmeyer, and Ellad B. Tadmor},
 title = {Type Label Framework for Bonded Force Fields in LAMMPS},
 journal = {J. Phys. Chem. B},
 year =    2024,
 volume =  128,
 number =  13,
 pages =   {3282â€“-3297}
}

CITE-CITE-CITE-CITE-CITE-CITE-CITE-CITE-CITE-CITE-CITE-CITE-CITE

Generated 1 of 1 mixed pair_coeff terms from arithmetic mixing rule
Step          Fmax          Fnorm          Press          Volume      v_sysdensity      v_sxx          v_syy          v_szz          v_syz          v_sxz          v_sxy          PotEng        v_cella        v_cellb        v_cellc      v_cellalpha     v_cellbeta    v_cellgamma
0   54.773347      1098.6475     -948.35237      1063289.6      0.010007691    931.6303       1090.5357      822.8911       57.987124      30.392668      15.618351      1451.013       21.989593      21.989593      2198.9593      1.5707963      1.5707963      1.5707963
Averages over the last 6 of 11 rows, steps 500 to 1000:
Fmax Fnorm Press Volume v_sysdensity v_sxx v_syy v_szz v_syz v_sxz v_sxy PotEng v_cella v_cellb v_cellc v_cellalpha v_cellbeta v_cellgamma
3.14785e-10 1.78031e-09 4.0669e-11 1.06329e+06 0.0100077 -2.11125e-11 -1.31575e-11 -8.77369e-11 -1.47706e-12 2.75722e-12 -3.80068e-12 581.128 21.9896 21.9896 2198.96 1.5708 1.5708 1.5708
Loop time of 0.0717179 on 16 procs for 1000 steps with 900 atoms

Minimization stats:
  Stopping criterion = max iterations
  Energy initial, next-to-last, final =
  Force two-norm initial, final = 1098.6475 1.7803348e-09
  Force max component initial, final = 54.773347 3.1478494e-10
  Final line search alpha, max atom move = 1 3.1478494e-10
  Iterations, force evaluations = 1000 2000

undump              minrun
#-------------------------------------------------------------------------------
# Substage 1.3: Velocities
# Initialize velocities to 298.15 (seed 1234) using a gaussian distribution.
#-------------------------------------------------------------------------------
velocity            all create 298.15 1234 dist gaussian mom yes rot no
reset_timestep      0
#-------------------------------------------------------------------------------
# Substage 1.4: NVT-dynamics
# Run 5000 steps with a timestep of 1.0. T from 298.15 to 298.15.
#-------------------------------------------------------------------------------
thermo_style        custom step v_time press vol v_sysdensity temp ebond eangle edihed eimp evdwl ecoul etail elong pe ke
fix                 1 all nvt temp 298.15 298.15 100 drag 1 nreset 1000 mtk yes
fix                 2 all ave/time 1 999 1000 v_time c_thermo_temp c_thermo_press v_sysvol v_sysdensity v_cella v_cellb v_cellc v_etotal v_pe v_ke v_evdwl v_coulomb v_sxx v_syy v_szz v_syz v_sxz v_sxy v_xhi v_yhi v_zhi v_xlo v_ylo v_zlo file 1.4_nvt_instantaneous.out
dump                1 all custom 1000 1.4_nvt.lammpstrj id mol type q xs ys zs
timestep            1.0
run                 5000
Generated 1 of 1 mixed pair_coeff terms from arithmetic mixing rule
Step         v_time         Press          Volume      v_sysdensity       Temp          E_bond        E_angle        E_dihed        E_impro         E_vdwl         E_coul         E_tail         E_long         PotEng         KinEng
0   1e-06          34.348683      1063289.6      0.010007691    298.15         41.099777      48.844595      1.1635581e-12  0              491.18399      0              0              0              581.12836      798.96694
Averages over the last 26 of 51 rows, steps 2500 to 5000:
v_time Press Volume v_sysdensity Temp E_bond E_angle E_dihed E_impro E_vdwl E_coul E_tail E_long PotEng KinEng
3750 3.22713 1.06329e+06 0.0100077 296.734 272.107 206.584 189.396 0 504.558 0 0 0 1172.64 795.173
Loop time of 0.388666 on 16 procs for 5000 steps with 900 atoms

unfix               1
unfix               2
undump              1
reset_timestep      0
#-------------------------------------------------------------------------------
# Substage 1.5: Uniaxial compression dynamics
# Uniaxial compression in the z axis for 100000 steps with a timestep of 1.0.
# Temperature control from 298.15 to 298.15 K. Deformation applied every 1000
# steps, with an t strain equal to: XX)
#-------------------------------------------------------------------------------
variable            strainrate equal ln((lx+4.0)/lz)/100000.0
variable            strainrateconst equal -4.43804328967088e-05
thermo_style        custom step v_time press vol v_sysdensity temp ebond eangle edihed eimp evdwl ecoul etail elong pe ke
fix                 1 all nvt temp 298.15 298.15 100 drag 1 nreset 1000 mtk yes
fix                 2 all ave/time 1 999 1000 v_time c_thermo_temp c_thermo_press v_sysvol v_sysdensity v_cella v_cellb v_cellc v_etotal v_pe v_ke v_evdwl v_coulomb v_sxx v_syy v_szz v_syz v_sxz v_sxy v_xhi v_yhi v_zhi v_xlo v_ylo v_zlo file 1.5_uniaxialcompression_instantaneous.out
variable            wzhigh equal "v_zhi - 2.0"
variable            wzlow equal "v_zlo + 2.0"
fix                 upperW all indent 10 plane z v_wzhigh hi units box
fix                 lowerW all indent 10 plane z v_wzlow lo units box
fix                 dfrm all deform 1000 z trate -4.43804328967088e-05 units box remap x
dump                1 all custom 1000 1.5_uniaxialcompression.lammpstrj id mol type q xs ys zs
timestep            1.0
run                 100000
Generated 1 of 1 mixed pair_coeff terms from arithmetic mixing rule
Step         v_time         Press          Volume      v_sysdensity       Temp          E_bond        E_angle        E_dihed        E_impro         E_vdwl         E_coul         E_tail         E_long         PotEng         KinEng
0   1e-06         -28.632933      1063289.6      0.010007691    293.38465      270.62799      220.86112      198.44184      0              491.11369      0              0              0              1181.0446      786.197
Averages over the last 501 of 1001 rows, steps 50000 to 100000:
v_time Press Volume v_sysdensity Temp E_bond E_angle E_dihed E_impro E_vdwl E_coul E_tail E_long PotEng KinEng
75000 -759.961 47398.1 0.333635 305.182 368.457 248.606 200.513 0 127.643 0 0 0 945.218 817.811
Loop time of 31.5069 on 16 procs for 100000 steps with 900 atoms

unfix               1
unfix               2
unfix               upperW
unfix               lowerW
unfix               dfrm
undump              1
reset_timestep      0
#-------------------------------------------------------------------------------
# Substage 1.6: NPT-dynamics
# Run 5000 steps with a timestep of 1.0. T from 298.15 to 298.15. Pressure
# from 1.0 to 1.0.
#-------------------------------------------------------------------------------
thermo_style        custom step v_time press vol v_sysdensity temp ebond eangle edihed eimp evdwl ecoul etail elong pe ke
fix                 1 all npt temp 298.15 298.15 100 iso 1.0 1.0 100 drag 1 nreset 1000 mtk yes
fix                 2 all ave/time 1 999 1000 v_time c_thermo_temp c_thermo_press v_sysvol v_sysdensity v_cella v_cellb v_cellc v_etotal v_pe v_ke v_evdwl v_coulomb v_sxx v_syy v_szz v_syz v_sxz v_sxy v_xhi v_yhi v_zhi v_xlo v_ylo v_zlo file 1.6_npt_instantaneous.out
fix                 3 all ave/time 1 4999 5000 v_xlo v_xhi v_ylo v_yhi v_zlo v_zhi
dump                1 all custom 1000 1.6_npt.lammpstrj id mol type q xs ys zs
timestep            1.0
run                 5000
Generated 1 of 1 mixed pair_coeff terms from arithmetic mixing rule
Step         v_time         Press          Volume      v_sysdensity       Temp          E_bond        E_angle        E_dihed        E_impro         E_vdwl         E_coul         E_tail         E_long         PotEng         KinEng
0   1e-06          22293.78       12567.065      0.84674295     308.68386      425.89092      253.77461      161.37217      0              16.364491      0              0              0              857.40219      827.19503
Averages over the last 26 of 51 rows, steps 2500 to 5000:
v_time Press Volume v_sysdensity Temp E_bond E_angle E_dihed E_impro E_vdwl E_coul E_tail E_long PotEng KinEng
3750 142.355 10423.2 1.02099 298.276 325.428 241.749 214.581 0 -83.5503 0 0 0 698.208 799.305
Loop time of 4.63989 on 16 procs for 5000 steps with 900 atoms

unfix               1
unfix               2
unfix               3
undump              1
reset_timestep      0
#-------------------------------------------------------------------------------
# Substage 1.7: NVT-dynamics
# Run 5000 steps with a timestep of 1.0. T from 298.15 to 298.15.
#-------------------------------------------------------------------------------
thermo_style        custom step v_time press vol v_sysdensity temp ebond eangle edihed eimp evdwl ecoul etail elong pe ke
fix                 1 all nvt temp 298.15 298.15 100 drag 1 nreset 1000 mtk yes
fix                 2 all ave/time 1 999 1000 v_time c_thermo_temp c_thermo_press v_sysvol v_sysdensity v_cella v_cellb v_cellc v_etotal v_pe v_ke v_evdwl v_coulomb v_sxx v_syy v_szz v_syz v_sxz v_sxy v_xhi v_yhi v_zhi v_xlo v_ylo v_zlo file 1.7_nvt_instantaneous.out
dump                1 all custom 1000 1.7_nvt.lammpstrj id mol type q xs ys zs
timestep            1.0
run                 5000
Generated 1 of 1 mixed pair_coeff terms from arithmetic mixing rule
Step         v_time         Press          Volume      v_sysdensity       Temp          E_bond        E_angle        E_dihed        E_impro         E_vdwl         E_coul         E_tail         E_long         PotEng         KinEng
0   1e-06         -2348.6787      10254.876      1.0376599      299.07324      314.88514      240.50006      236.876        0             -87.544591      0              0              0              704.71661      801.44099
Averages over the last 26 of 51 rows, steps 2500 to 5000:
v_time Press Volume v_sysdensity Temp E_bond E_angle E_dihed E_impro E_vdwl E_coul E_tail E_long PotEng KinEng
3750 191.109 10254.9 1.03766 298.287 318.862 241.966 222.745 0 -93.9042 0 0 0 689.669 799.333
Loop time of 4.54496 on 16 procs for 5000 steps with 900 atoms

unfix               1
unfix               2
undump              1
reset_timestep      0
#-------------------------------------------------------------------------------
# Substage 1.8: NVE-dynamics
# Run 5000 steps with a timestep of 1.0.
#-------------------------------------------------------------------------------
thermo_style        custom step v_time press vol v_sysdensity temp ebond eangle edihed eimp evdwl ecoul etail elong pe ke
fix                 1 all nve nreset 1000 mtk yes
fix                 2 all ave/time 1 999 1000 v_time c_thermo_temp c_thermo_press v_sysvol v_sysdensity v_cella v_cellb v_cellc v_etotal v_pe v_ke v_evdwl v_coulomb v_sxx v_syy v_szz v_syz v_sxz v_sxy v_xhi v_yhi v_zhi v_xlo v_ylo v_zlo file 1.8_nve_instantaneous.out
dump                1 all custom 1000 1.8_nve.lammpstrj id mol type q xs ys zs
timestep            1.0
run                 5000
Generated 1 of 1 mixed pair_coeff terms from arithmetic mixing rule
Step         v_time         Press          Volume      v_sysdensity       Temp          E_bond        E_angle        E_dihed        E_impro         E_vdwl         E_coul         E_tail         E_long         PotEng         KinEng
0   1e-06          837.91775      10254.876      1.0376599      298.91827      310.09905      247.74368      215.48702      0             -86.606994      0              0              0              686.72275      801.02569
Averages over the last 26 of 51 rows, steps 2500 to 5000:
v_time Press Volume v_sysdensity Temp E_bond E_angle E_dihed E_impro E_vdwl E_coul E_tail E_long PotEng KinEng
3750 -26.2983 10254.9 1.03766 298.873 320.644 246.681 213.398 0 -94.2936 0 0 0 686.429 800.905
Loop time of 4.50452 on 16 procs for 5000 steps with 900 atoms

unfix               1
unfix               2
undump              1
reset_timestep      0
#-------------------------------------------------------------------------------
# Substage 1.9: Minimization
# Initialize LAMMPS run.
#-------------------------------------------------------------------------------
min_style           cg
min_modify          dmax 0.05
thermo_style        custom step fmax fnorm press vol v_sysdensity v_sxx v_syy v_szz v_syz v_sxz v_sxy pe v_cella v_cellb v_cellc v_cellalpha v_cellbeta v_cellgamma
dump                minrun all custom 1000 1.9_minimization.lammpstrj id mol type q xs ys zs
thermo              100
minimize            0.0 0.0 1000 10000
Generated 1 of 1 mixed pair_coeff terms from arithmetic mixing rule
Step          Fmax          Fnorm          Press          Volume      v_sysdensity      v_sxx          v_syy          v_szz          v_syz          v_sxz          v_sxy          PotEng        v_cella        v_cellb        v_cellc      v_cellalpha     v_cellbeta    v_cellgamma
0   112.28151      1284.0834     -1840.954       10254.876      1.0376599      2434.2254      7128.2677     -4039.6312      119.12268     -27.15289      -496.456        679.59354      20.548622      20.548622      24.286503      1.5707963      1.5707963      1.5707963
Averages over the last 6 of 11 rows, steps 500 to 1000:
Fmax Fnorm Press Volume v_sysdensity v_sxx v_syy v_szz v_syz v_sxz v_sxy PotEng v_cella v_cellb v_cellc v_cellalpha v_cellbeta v_cellgamma
0.847462 7.36875 292.274 10254.9 1.03766 -220.141 -396.315 -260.365 -98.5913 5.28523 213.656 -119.926 20.5486 20.5486 24.2865 1.5708 1.5708 1.5708
Loop time of 1.81997 on 16 procs for 1000 steps with 900 atoms

Minimization stats:
  Stopping criterion = max iterations
  Energy initial, next-to-last, final =
  Force two-norm initial, final = 1284.0834 7.0314594
  Force max component initial, final = 112.28151 1.066048
  Final line search alpha, max atom move = 0.0046231533 0.0049285036
  Iterations, force evaluations = 1000 2000

undump              minrun
