LAMMPS (7 Jan 2022)
#-------------------------------------------------------------------------------
# LAMMPS Stage 1:
# Created using Scymol 2023.
#-------------------------------------------------------------------------------
echo                both
#-------------------------------------------------------------------------------
# Substage 1.1: Initialization
# Initialize LAMMPS run.
#-------------------------------------------------------------------------------
units               real
boundary            p p p
atom_style          full
pair_style          lj/cut 12.0
pair_modify         mix arithmetic
bond_style          harmonic
angle_style         harmonic
dihedral_style      fourier
improper_style      cvff
special_bonds       amber
read_data           structure.data
Reading data file ...
  orthogonal box = (0 0 0) to (21.989593 21.989593 2198.9593)
  reading atoms ...
  900 atoms
  reading velocities ...
  900 velocities
  scanning bonds ...
  scanning angles ...
  scanning dihedrals ...
  reading bonds ...
  950 bonds
  reading angles ...
  1500 angles
  reading dihedrals ...
  2200 dihedrals
Finding 1-2 1-3 1-4 neighbors ...
     3 = max # of 1-2 neighbors
     6 = max # of 1-3 neighbors
    14 = max # of 1-4 neighbors
    15 = max # of special neighbors

#-------------------------------------------------------------------------------
# Declaring variables:
#-------------------------------------------------------------------------------
variable            R equal 0.00198722
variable            sysvol equal vol
variable            sysmass equal mass(all)/6.0221367e+023
variable            sysdensity equal v_sysmass/v_sysvol/1.0e-24
variable            coulomb equal ecoul+elong
variable            etotal equal etotal
variable            pe equal pe
variable            ke equal ke
variable            evdwl equal evdwl
variable            epair equal epair
variable            ebond equal ebond
variable            eangle equal eangle
variable            edihed equal edihed
variable            eimp equal eimp
variable            lx equal lx
variable            ly equal ly
variable            lz equal lz
variable            xhi equal xhi
variable            yhi equal yhi
variable            zhi equal zhi
variable            xlo equal xlo
variable            ylo equal ylo
variable            zlo equal zlo
variable            Nthermo equal 0
variable            cella equal lx
variable            cellb equal sqrt(ly*ly+xy*xy)
variable            cellc equal sqrt(lz*lz+xz*xz+yz*yz)
variable            cellalpha equal acos((xy*xz+ly*yz)/(v_cellb*v_cellc))
variable            cellbeta equal acos(xz/v_cellc)
variable            cellgamma equal acos(xy/v_cellb)
variable            p equal press
variable            pxx equal pxx
variable            pyy equal pyy
variable            pzz equal pzz
variable            pyz equal pyz
variable            pxz equal pxz
variable            pxy equal pxy
variable            sxx equal -pxx
variable            syy equal -pyy
variable            szz equal -pzz
variable            syz equal -pyz
variable            sxz equal -pxz
variable            sxy equal -pxy
variable            fmax equal fmax
variable            fnorm equal fnorm
variable            time equal step*dt+0.000001
thermo_style        custom step v_time press vol v_sysdensity temp ebond eangle edihed eimp evdwl ecoul etail elong pe ke
thermo_modify       flush yes
reset_timestep      0
#-------------------------------------------------------------------------------
# Substage 1.2: Minimization
# Initialize LAMMPS run.
#-------------------------------------------------------------------------------
min_style           cg
min_modify          dmax 0.05
thermo_style        custom step fmax fnorm press vol v_sysdensity v_sxx v_syy v_szz v_syz v_sxz v_sxy pe v_cella v_cellb v_cellc v_cellalpha v_cellbeta v_cellgamma
dump                minrun all custom 1000 1.2_minimization.lammpstrj id mol type q xs ys zs
thermo              100
minimize            0.0 0.0 1000 10000
  generated 1 of 1 mixed pair_coeff terms from arithmetic mixing rule
  update every 1 steps, delay 0 steps, check yes
Step Fmax Fnorm Press Volume v_sysdensity v_sxx v_syy v_szz v_syz v_sxz v_sxy PotEng v_cella v_cellb v_cellc v_cellalpha v_cellbeta v_cellgamma
0    55.078462    1098.6155    -948.3222    1063289.6  0.010007691    997.03902    846.96412    1000.9635    -99.91878    11.298116    16.800999    1450.9393    21.989593    21.989593    2198.9593    1.5707963    1.5707963    1.5707963
Averages over the last 6 of 11 rows, steps 500 to 1000:
Fmax Fnorm Press Volume v_sysdensity v_sxx v_syy v_szz v_syz v_sxz v_sxy PotEng v_cella v_cellb v_cellc v_cellalpha v_cellbeta v_cellgamma
5.75716e-10 2.02022e-09 8.73755e-11 1.06329e+06 0.0100077 -7.93109e-12 -5.60629e-12 -2.48589e-10 3.6565e-13 -5.08718e-12 7.6716e-12 581.128 21.9896 21.9896 2198.96 1.5708 1.5708 1.5708
Loop time of 0.706132 on 1 procs for 1000 steps with 900 atoms

Minimization stats:
  Stopping criterion = max iterations
  Energy initial, next-to-last, final =
  Force two-norm initial, final = 1098.6155 2.0202795e-09
  Force max component initial, final = 55.078462 5.7571617e-10
  Final line search alpha, max atom move = 1 5.7571617e-10
  Iterations, force evaluations = 1000 2000

undump              minrun
#-------------------------------------------------------------------------------
# Substage 1.3: Velocities
# Initialize velocities to 298.15 (seed 1234) using a gaussian distribution.
#-------------------------------------------------------------------------------
velocity            all create 298.15 1234 dist gaussian mom yes rot no
reset_timestep      0
#-------------------------------------------------------------------------------
# Substage 1.4: NVT-dynamics
# Run 5000 steps with a timestep of 1.0. T from 298.15 to 298.15.
#-------------------------------------------------------------------------------
thermo_style        custom step v_time press vol v_sysdensity temp ebond eangle edihed eimp evdwl ecoul etail elong pe ke
fix                 1 all nvt temp 298.15 298.15 100 drag 1 nreset 1000 mtk yes
fix                 2 all ave/time 1 999 1000 v_time c_thermo_temp c_thermo_press v_sysvol v_sysdensity v_cella v_cellb v_cellc v_etotal v_pe v_ke v_evdwl v_coulomb v_sxx v_syy v_szz v_syz v_sxz v_sxy v_xhi v_yhi v_zhi v_xlo v_ylo v_zlo file 1.4_nvt_instantaneous.out
dump                1 all custom 1000 1.4_nvt.lammpstrj id mol type q xs ys zs
timestep            1.0
run                 5000
  generated 1 of 1 mixed pair_coeff terms from arithmetic mixing rule
Step v_time Press Volume v_sysdensity Temp E_bond E_angle E_dihed E_impro E_vdwl E_coul E_tail E_long PotEng KinEng
0        1e-06    34.348683    1063289.6  0.010007691       298.15    41.099777    48.844595 1.2122858e-12            0    491.18399            0            0            0    581.12836    798.96694
Averages over the last 26 of 51 rows, steps 2500 to 5000:
v_time Press Volume v_sysdensity Temp E_bond E_angle E_dihed E_impro E_vdwl E_coul E_tail E_long PotEng KinEng
3750 4.93506 1.06329e+06 0.0100077 298.745 273.827 220.973 178.365 0 505.803 0 0 0 1178.97 800.562
Loop time of 2.11982 on 1 procs for 5000 steps with 900 atoms

unfix               1
unfix               2
undump              1
reset_timestep      0
#-------------------------------------------------------------------------------
# Substage 1.5: Uniaxial compression dynamics
# Uniaxial compression in the z axis for 100000 steps with a timestep of 1.0.
# Temperature control from 298.15 to 298.15 K. Deformation applied every 1000
# steps, with an t strain equal to: XX)
#-------------------------------------------------------------------------------
variable            strainrate equal ln((lx+4.0)/lz)/100000.0
variable            strainrateconst equal -4.43804328967088e-05
thermo_style        custom step v_time press vol v_sysdensity temp ebond eangle edihed eimp evdwl ecoul etail elong pe ke
fix                 1 all nvt temp 298.15 298.15 100 drag 1 nreset 1000 mtk yes
fix                 2 all ave/time 1 999 1000 v_time c_thermo_temp c_thermo_press v_sysvol v_sysdensity v_cella v_cellb v_cellc v_etotal v_pe v_ke v_evdwl v_coulomb v_sxx v_syy v_szz v_syz v_sxz v_sxy v_xhi v_yhi v_zhi v_xlo v_ylo v_zlo file 1.5_uniaxialcompression_instantaneous.out
variable            wzhigh equal "v_zhi - 2.0"
variable            wzlow equal "v_zlo + 2.0"
fix                 upperW all indent 10 plane z v_wzhigh hi units box
fix                 lowerW all indent 10 plane z v_wzlow lo units box
fix                 dfrm all deform 1000 z trate -4.43804328967088e-05 units box remap x
dump                1 all custom 1000 1.5_uniaxialcompression.lammpstrj id mol type q xs ys zs
timestep            1.0
run                 100000
  generated 1 of 1 mixed pair_coeff terms from arithmetic mixing rule
Step v_time Press Volume v_sysdensity Temp E_bond E_angle E_dihed E_impro E_vdwl E_coul E_tail E_long PotEng KinEng
0        1e-06   -13.433776    1063289.6  0.010007691    294.49805    268.32818    236.35659    178.24771            0    506.18963            0            0            0    1189.1221    789.18063
Averages over the last 85 of 170 rows, steps 8500 to 16900:
v_time Press Volume v_sysdensity Temp E_bond E_angle E_dihed E_impro E_vdwl E_coul E_tail E_long PotEng KinEng
12700 -38.2229 621469 0.0173279 309.795 393.73 260.868 208.205 0 482.241 0 0 0 1345.04 830.174
